Version 4
SHEET 1 880 688
WIRE 208 192 112 192
WIRE 320 192 288 192
WIRE 352 192 320 192
WIRE 448 192 432 192
WIRE 320 208 320 192
WIRE 448 208 448 192
WIRE 448 224 432 224
WIRE 560 224 528 224
WIRE 112 288 112 272
WIRE 192 304 128 304
WIRE 304 304 272 304
WIRE 320 304 320 288
WIRE 320 304 304 304
WIRE 352 304 320 304
WIRE 432 304 432 224
WIRE 448 304 432 304
WIRE 560 320 560 224
WIRE 560 320 512 320
WIRE 592 320 560 320
WIRE 448 336 384 336
WIRE 384 368 384 336
WIRE 128 400 128 384
WIRE 304 416 304 304
WIRE 384 464 384 448
WIRE 304 528 304 496
WIRE 304 672 304 608
FLAG 128 400 0
FLAG 384 464 0
FLAG 304 672 0
FLAG 112 288 0
FLAG 448 208 0
FLAG 592 320 out
SYMBOL voltage 128 288 R0
SYMATTR InstName V1
SYMATTR Value SINE(0 10 1000)
SYMBOL voltage 304 624 R180
WINDOW 0 24 96 Left 2
WINDOW 3 24 16 Left 2
SYMATTR InstName V4
SYMATTR Value 10
SYMBOL voltage 384 352 R0
SYMATTR InstName V5
SYMATTR Value 1.2v
SYMBOL res 448 288 R90
WINDOW 0 0 56 VBottom 2
WINDOW 3 32 56 VTop 2
SYMATTR InstName R1
SYMATTR Value 3k
SYMBOL res 544 208 R90
WINDOW 0 0 56 VBottom 2
WINDOW 3 32 56 VTop 2
SYMATTR InstName R2
SYMATTR Value 10k
SYMBOL res 288 288 R90
WINDOW 0 0 56 VBottom 2
WINDOW 3 32 56 VTop 2
SYMATTR InstName R3
SYMATTR Value 100k
SYMBOL res 336 304 R180
WINDOW 0 36 76 Left 2
WINDOW 3 36 40 Left 2
SYMATTR InstName R4
SYMATTR Value 100k
SYMBOL res 304 176 R90
WINDOW 0 0 56 VBottom 2
WINDOW 3 32 56 VTop 2
SYMATTR InstName R6
SYMATTR Value 1k
SYMBOL res 336 208 R270
WINDOW 0 32 56 VTop 2
WINDOW 3 0 56 VBottom 2
SYMATTR InstName R7
SYMATTR Value 9k
SYMBOL voltage 112 176 R0
SYMATTR InstName V2
SYMATTR Value 10
SYMBOL res 288 400 R0
SYMATTR InstName R5
SYMATTR Value 200k
SYMBOL Opamps/opamp 480 256 R0
SYMATTR InstName U1
TEXT 664 448 Left 2 !.tran 2ms
TEXT 672 496 Left 2 !.lib opamp.sub
